@<TRIPOS>MOLECULE
PET
   98   101     1     0     0
SMALL
bcc


@<TRIPOS>ATOM
      1 C1A        -22.0970   -13.5430     8.0760 c3         1 PET       0.123900
      2 C2A        -21.1260   -13.2370     6.9430 c3         1 PET       0.123900
      3 C3A        -21.5520   -12.0120     5.1130 c          1 PET       0.643200
      4 C4A        -22.2630    -9.9210     4.2310 ca         1 PET      -0.090250
      5 C5A        -22.5550   -11.1840     4.7470 ca         1 PET      -0.103100
      6 C6A        -23.8820   -11.5900     4.8870 ca         1 PET      -0.090250
      7 C7A        -24.9160   -10.7340     4.5090 ca         1 PET      -0.089500
      8 C8A        -24.6250    -9.4720     3.9920 ca         1 PET      -0.104100
      9 C9A        -23.2970    -9.0650     3.8530 ca         1 PET      -0.089500
     10 C1B        -25.6270    -8.6430     3.6260 c          1 PET       0.645700
     11 C2B        -25.8370    -7.2670     1.8670 c3         1 PET       0.124400
     12 C3B        -25.2220    -7.3080     0.4750 c3         1 PET       0.133900
     13 C4B        -25.4160    -5.1690    -0.1720 c          1 PET       0.647700
     14 C5B        -24.8440    -2.8960    -0.5830 ca         1 PET      -0.089750
     15 C6B        -25.2930    -3.9000     0.2760 ca         1 PET      -0.101600
     16 C7B        -25.6160    -3.5920     1.5980 ca         1 PET      -0.089750
     17 C8B        -25.4900    -2.2830     2.0610 ca         1 PET      -0.088000
     18 C9B        -25.0400    -1.2800     1.2010 ca         1 PET      -0.105100
     19 C1C        -24.7180    -1.5870    -0.1200 ca         1 PET      -0.088000
     20 C2C        -24.9180    -0.0110     1.6500 c          1 PET       0.649700
     21 C3C        -25.9760     0.9520     3.3780 c3         1 PET       0.097400
     22 C4C        -25.5760     1.9360     4.4700 c3         1 PET       0.109900
     23 C5C        -22.7730   -15.6720     7.8830 c          1 PET       0.643200
     24 C6C        -23.2150   -17.2490     4.6220 ca         1 PET      -0.089500
     25 C7C        -22.5310   -18.4480     4.8210 ca         1 PET      -0.104100
     26 C8C        -21.9280   -18.7120     6.0510 ca         1 PET      -0.089500
     27 C9C        -22.0100   -17.7780     7.0820 ca         1 PET      -0.090250
     28 C1D        -22.6940   -16.5780     6.8840 ca         1 PET      -0.103100
     29 C2D        -23.2960   -16.3140     5.6540 ca         1 PET      -0.090250
     30 C3D        -22.4520   -19.3540     3.8210 c          1 PET       0.645700
     31 C4D        -21.5910   -21.4260     3.8580 c3         1 PET       0.124400
     32 C5D        -20.3220   -22.1200     4.3320 c3         1 PET       0.133900
     33 C6D        -18.8370   -22.1470     6.0140 c          1 PET       0.647700
     34 C7D        -15.9500   -20.1320     6.9710 ca         1 PET      -0.088000
     35 C8D        -14.9390   -20.7720     6.2530 ca         1 PET      -0.105100
     36 C9D        -15.2420   -21.8750     5.4540 ca         1 PET      -0.088000
     37 C1E        -16.5550   -22.3380     5.3740 ca         1 PET      -0.089750
     38 C2E        -17.5660   -21.6980     6.0920 ca         1 PET      -0.101600
     39 C3E        -17.2630   -20.5950     6.8900 ca         1 PET      -0.089750
     40 C4E        -13.6670   -20.3230     6.3310 c          1 PET       0.649700
     41 C5E        -11.8460   -19.8480     7.5510 c3         1 PET       0.097400
     42 C6E        -11.1660   -20.1920     8.8690 c3         1 PET       0.109900
     43 O7E        -21.8280   -13.1650     5.7310 os         1 PET      -0.435400
     44 O8E        -20.4060   -11.7100     4.8810 o          1 PET      -0.535500
     45 O9E        -26.1820    -7.9640     4.4560 o          1 PET      -0.536500
     46 O1F        -26.0040    -8.5740     2.3440 os         1 PET      -0.435400
     47 O2F        -24.5470    -6.1050     0.2240 os         1 PET      -0.438900
     48 O3F        -26.3100    -5.4570    -0.9310 o          1 PET      -0.531500
     49 O4F        -24.8730     0.9050     0.8640 o          1 PET      -0.553500
     50 O5F        -24.8470     0.2300     2.9640 os         1 PET      -0.436400
     51 O6F        -24.1940     2.1650     4.4090 oh         1 PET      -0.602800
     52 O7F        -23.1010   -14.4030     7.6120 os         1 PET      -0.435400
     53 O8F        -22.5490   -16.0080     9.0220 o          1 PET      -0.535500
     54 O9F        -23.3930   -19.5240     3.0840 o          1 PET      -0.536500
     55 O1G        -21.3310   -20.0630     3.6490 os         1 PET      -0.435400
     56 O2G        -19.7720   -21.4070     5.4060 os         1 PET      -0.438900
     57 O3G        -19.1310   -23.2160     6.4920 o          1 PET      -0.531500
     58 O4G        -13.2660   -19.5040     5.5390 o          1 PET      -0.553500
     59 O5G        -12.8510   -20.7880     7.2840 os         1 PET      -0.436400
     60 O6G        -10.8560   -19.0110     9.5590 oh         1 PET      -0.602800
     61 H7G        -22.5390   -12.6320     8.4220 h1         1 PET       0.077450
     62 H8G        -21.5700   -14.0120     8.8800 h1         1 PET       0.077450
     63 H9G        -20.6420   -12.3010     7.1310 h1         1 PET       0.077450
     64 H1H        -20.3920   -14.0130     6.8840 h1         1 PET       0.077450
     65 H2H        -21.2810    -9.6200     4.1290 ha         1 PET       0.164000
     66 H3H        -24.0990   -12.5230     5.2700 ha         1 PET       0.164000
     67 H4H        -25.8980   -11.0350     4.6120 ha         1 PET       0.167500
     68 H5H        -23.0810    -8.1310     3.4710 ha         1 PET       0.167500
     69 H6H        -26.7890    -6.7800     1.8220 h1         1 PET       0.069950
     70 H7H        -25.1900    -6.7270     2.5260 h1         1 PET       0.069950
     71 H8H        -24.5320    -8.1230     0.4140 h1         1 PET       0.078450
     72 H9H        -25.9960    -7.4400    -0.2520 h1         1 PET       0.078450
     73 H1I        -24.6050    -3.1230    -1.5610 ha         1 PET       0.164250
     74 H2I        -25.9480    -4.3340     2.2340 ha         1 PET       0.164250
     75 H3I        -25.7290    -2.0560     3.0390 ha         1 PET       0.164500
     76 H4I        -24.3860    -0.8450    -0.7560 ha         1 PET       0.164500
     77 H5I        -26.7120     0.2760     3.7590 h1         1 PET       0.076200
     78 H6I        -26.3820     1.4880     2.5460 h1         1 PET       0.076200
     79 H7I        -25.8280     1.5290     5.4270 h1         1 PET       0.055200
     80 H8I        -26.0970     2.8590     4.3270 h1         1 PET       0.055200
     81 H9I        -23.6610   -17.0540     3.7120 ha         1 PET       0.167500
     82 H1J        -21.4210   -19.5990     6.1970 ha         1 PET       0.167500
     83 H2J        -21.5650   -17.9740     7.9920 ha         1 PET       0.164000
     84 H3J        -23.8020   -15.4260     5.5070 ha         1 PET       0.164000
     85 H4J        -21.9190   -21.8710     2.9420 h1         1 PET       0.069950
     86 H5J        -22.3540   -21.5330     4.6010 h1         1 PET       0.069950
     87 H6J        -19.6150   -22.1570     3.5300 h1         1 PET       0.078450
     88 H7J        -20.5570   -23.1150     4.6480 h1         1 PET       0.078450
     89 H8J        -15.7260   -19.3160     7.5620 ha         1 PET       0.164500
     90 H9J        -14.4950   -22.3480     4.9220 ha         1 PET       0.164500
     91 H1K        -16.7790   -23.1540     4.7840 ha         1 PET       0.164250
     92 H2K        -18.0110   -20.1210     7.4210 ha         1 PET       0.164250
     93 H3K        -12.2790   -18.8720     7.6170 h1         1 PET       0.076200
     94 H4K        -11.1230   -19.8650     6.7620 h1         1 PET       0.076200
     95 H5K        -10.2660   -20.7380     8.6740 h1         1 PET       0.055200
     96 H6K        -11.8250   -20.7900     9.4640 h1         1 PET       0.055200
     97 H7K        -23.7220     1.3280     4.5390 ho         1 PET       0.423500
     98 H8K        -10.2590   -18.4690     9.0200 ho         1 PET       0.423500
@<TRIPOS>BOND
     1     1     2 1   
     2     1    52 1   
     3     1    61 1   
     4     1    62 1   
     5     2    43 1   
     6     2    63 1   
     7     2    64 1   
     8     3     5 1   
     9     3    43 1   
    10     3    44 2   
    11     4     5 ar  
    12     4     9 ar  
    13     4    65 1   
    14     5     6 ar  
    15     6     7 ar  
    16     6    66 1   
    17     7     8 ar  
    18     7    67 1   
    19     8     9 ar  
    20     8    10 1   
    21     9    68 1   
    22    10    45 2   
    23    10    46 1   
    24    11    12 1   
    25    11    46 1   
    26    11    69 1   
    27    11    70 1   
    28    12    47 1   
    29    12    71 1   
    30    12    72 1   
    31    13    15 1   
    32    13    47 1   
    33    13    48 2   
    34    14    15 ar  
    35    14    19 ar  
    36    14    73 1   
    37    15    16 ar  
    38    16    17 ar  
    39    16    74 1   
    40    17    18 ar  
    41    17    75 1   
    42    18    19 ar  
    43    18    20 1   
    44    19    76 1   
    45    20    49 2   
    46    20    50 1   
    47    21    22 1   
    48    21    50 1   
    49    21    77 1   
    50    21    78 1   
    51    22    51 1   
    52    22    79 1   
    53    22    80 1   
    54    23    28 1   
    55    23    52 1   
    56    23    53 2   
    57    24    25 ar  
    58    24    29 ar  
    59    24    81 1   
    60    25    26 ar  
    61    25    30 1   
    62    26    27 ar  
    63    26    82 1   
    64    27    28 ar  
    65    27    83 1   
    66    28    29 ar  
    67    29    84 1   
    68    30    54 2   
    69    30    55 1   
    70    31    32 1   
    71    31    55 1   
    72    31    85 1   
    73    31    86 1   
    74    32    56 1   
    75    32    87 1   
    76    32    88 1   
    77    33    38 1   
    78    33    56 1   
    79    33    57 2   
    80    34    35 ar  
    81    34    39 ar  
    82    34    89 1   
    83    35    36 ar  
    84    35    40 1   
    85    36    37 ar  
    86    36    90 1   
    87    37    38 ar  
    88    37    91 1   
    89    38    39 ar  
    90    39    92 1   
    91    40    58 2   
    92    40    59 1   
    93    41    42 1   
    94    41    59 1   
    95    41    93 1   
    96    41    94 1   
    97    42    60 1   
    98    42    95 1   
    99    42    96 1   
   100    51    97 1   
   101    60    98 1   
@<TRIPOS>SUBSTRUCTURE
     1 PET         1 TEMP              0 ****  ****    0 ROOT
